tests/ref_data/case123_lines.csv
id,id,from,to,config_name,length,type,rateA,ratio,angle,status,floor,cap,#id,#from,#to,P_A_MW,P_B_MW,P_C_MW,Q_A_MVAr,Q_B_MVAr,Q_C_MVAr,p_loss_A_MW,p_loss_B_MW,p_loss_C_MW,q_loss_A_MVAr,q_loss_B_MVAr,q_loss_C_MVAr,p_flow_MW,q_flow_MVAr,p_loss_MW,q_loss_MVAr
1,1,1,2,1,0.075758,ABCN,0.0,0.0,0.0,1.0,-1000000.0,1000000.0,0,0,1,-1.437118986861614,-0.9183736121109863,-1.1688693281839746,-0.8122796430278633,-0.5270860940720654,-0.6498541522519213,0.003816936895661838,0.0001707848655113871,0.00299411288625967,0.008422509770994818,0.0019017175847959008,0.004308646679419619,-3.524361927156575,-1.9892198893518498,0.006981834647432895,0.014632874035210337
2,2,2,3,10,0.033144,BN,0.0,0.0,0.0,1.0,-1000000.0,1000000.0,1,1,2,0.0,-0.020001157065924636,0.0,-0.0,-0.010001172996036072,0.0,0.0,1.1570659199014815e-06,0.0,0.0,1.1729960330027433e-06,0.0,-0.020001157065924636,-0.010001172996036072,1.1570659199014815e-06,1.1729960330027433e-06
3,3,2,4,11,0.047348,CN,0.0,0.0,0.0,1.0,-1000000.0,1000000.0,2,1,3,0.0,-0.0,-0.10007305125461573,-0.0,0.0,-0.05007405700076016,0.0,0.0,4.159726666302794e-05,0.0,0.0,4.216996451130767e-05,-0.10007305125461573,-0.05007405700076016,4.159726666302794e-05,4.216996451130767e-05
4,4,4,5,11,0.037879,CN,0.0,0.0,0.0,1.0,-1000000.0,1000000.0,3,3,4,0.0,-0.0,-0.04000532220572242,-0.0,0.0,-0.02000539548013647,0.0,0.0,5.322205722429276e-06,0.0,0.0,5.395480146684812e-06,-0.04000532220572242,-0.02000539548013647,5.322205722429276e-06,5.395480146684812e-06
5,5,4,6,11,0.061553,CN,0.0,0.0,0.0,1.0,-1000000.0,1000000.0,4,3,5,0.0,-0.0,-0.060026131782230825,-0.0,0.0,-0.03002649155619202,0.0,0.0,1.9473388013470676e-05,0.0,0.0,1.9741491384405462e-05,-0.060026131782230825,-0.03002649155619202,1.9473388013470676e-05,1.9741491384405462e-05
6,6,6,7,11,0.047348,CN,0.0,0.0,0.0,1.0,-1000000.0,1000000.0,5,5,6,0.0,-0.0,-0.04000665839421777,-0.0,0.0,-0.02000675006484484,0.0,0.0,6.658394217932653e-06,0.0,0.0,6.750064857556614e-06,-0.04000665839421777,-0.02000675006484484,6.658394217932653e-06,6.750064857556614e-06
7,7,2,8,1,0.056818,ABCN,0.0,0.0,0.0,1.0,-1000000.0,1000000.0,6,1,7,-1.3933020502604079,-0.8982016700418789,-1.065802164065047,-0.7838571334655733,-0.5151832034677265,-0.5954714485152162,0.0028679575069319313,5.926510510798685e-05,0.0018685526786607644,0.005994973249926441,0.0014571384730737793,0.002582878467182764,-3.357305884367334,-1.8945117854485158,0.004795775290700683,0.010034990190182985
8,8,8,9,1,0.037879,ABCN,0.0,0.0,0.0,1.0,-1000000.0,1000000.0,7,7,8,-1.3704340929670755,-0.8981424048360533,-1.0639336114017386,-0.7678621603675497,-0.5137260649773306,-0.592888570009074,0.0018537883644312771,6.296335671859242e-05,0.0012309116063500593,0.003864076589465514,0.0009780516400650788,0.0017391682721417277,-3.3325101092048675,-1.8744767953539543,0.003147663327499929,0.00658129650167232
9,9,9,10,9,0.042614,AN,0.0,0.0,0.0,1.0,-1000000.0,1000000.0,8,8,9,-0.10007218488594026,-0.0,0.0,-0.05007317870563616,0.0,0.0,3.793791008560617e-05,0.0,0.0,3.8460227084226844e-05,0.0,0.0,-0.10007218488594026,-0.05007317870563616,3.793791008560617e-05,3.8460227084226844e-05
10,10,15,11,9,0.047348,AN,0.0,0.0,0.0,1.0,-1000000.0,1000000.0,9,14,10,-0.020001686796845396,-0.0,0.0,-0.010001710020154653,0.0,0.0,1.686796878579883e-06,0.0,0.0,1.7100201579042978e-06,0.0,0.0,-0.020001686796845396,-0.010001710020154653,1.686796878579883e-06,1.7100201579042978e-06
11,11,15,12,9,0.047348,AN,0.0,0.0,0.0,1.0,-1000000.0,1000000.0,10,14,11,-0.0400067485598978,-0.0,0.0,-0.020006841472031363,0.0,0.0,6.748560030924147e-06,0.0,0.0,6.84147204459095e-06,0.0,0.0,-0.0400067485598978,-0.020006841472031363,6.748560030924147e-06,6.84147204459095e-06
12,12,9,13,10,0.042614,BN,0.0,0.0,0.0,1.0,-1000000.0,1000000.0,11,8,12,0.0,-0.020001491513796474,0.0,-0.0,-0.010001512048475762,0.0,0.0,1.4915137827224541e-06,0.0,0.0,1.5120484669113055e-06,0.0,-0.020001491513796474,-0.010001512048475762,1.4915137827224541e-06,1.5120484669113055e-06
13,13,9,14,1,0.056818,ABCN,0.0,0.0,0.0,1.0,-1000000.0,1000000.0,12,8,13,-1.2685081198562833,-0.8780779498986246,-1.062702699805623,-0.7139249051719663,-0.5027465012771348,-0.5911494017111971,0.002326412524134692,0.00023578027256047226,0.001771396817566382,0.004883612873841157,0.0014114761201082526,0.002746326182919156,-3.2092887695605308,-1.8078208081602982,0.004333589614261547,0.009041415176868565
14,14,10,15,9,0.080492,AN,0.0,0.0,0.0,1.0,-1000000.0,1000000.0,13,9,14,-0.060034246976597094,-0.0,0.0,-0.03003471847862279,0.0,0.0,2.5811620362642652e-05,0.0,0.0,2.6166986487105765e-05,0.0,0.0,-0.060034246976597094,-0.03003471847862279,2.5811620362642652e-05,2.6166986487105765e-05
15,15,35,16,11,0.018939,CN,0.0,0.0,0.0,1.0,-1000000.0,1000000.0,14,34,15,0.0,-0.0,-0.06001852882308776,-0.0,0.0,-0.03001878392188627,0.0,0.0,6.063688412228084e-06,0.0,0.0,6.1471713327394995e-06,-0.06001852882308776,-0.03001878392188627,6.063688412228084e-06,6.1471713327394995e-06
16,16,16,17,11,0.071023,CN,0.0,0.0,0.0,1.0,-1000000.0,1000000.0,15,15,16,0.0,-0.0,-0.040010107491081394,-0.0,0.0,-0.020010246647725084,0.0,0.0,1.0107491082015208e-05,0.0,0.0,1.0246647782888575e-05,-0.040010107491081394,-0.020010246647725084,1.0107491082015208e-05,1.0246647782888575e-05
17,17,16,18,11,0.066288,CN,0.0,0.0,0.0,1.0,-1000000.0,1000000.0,16,15,17,0.0,-0.0,-0.020002357643594464,-0.0,0.0,-0.01000239010286315,0.0,0.0,2.35764359454541e-06,0.0,0.0,2.3901028766550856e-06,-0.020002357643594464,-0.01000239010286315,2.35764359454541e-06,2.3901028766550856e-06
18,18,14,19,2,0.15625,CABN,0.0,0.0,0.0,1.0,-1000000.0,1000000.0,17,13,18,-0.5013761582360393,-0.2952677813063752,-0.32103182357948673,-0.28307986672749064,-0.18619823524708695,-0.18605354931673435,0.0008374145980624228,1.2209383765721868e-05,0.0007262953926783444,0.0021169913226761513,0.0005725287013700732,0.0005053248902928486,-1.1176757631219012,-0.6553316512913119,0.001575919374506489,0.0031948449143390733
19,19,19,20,9,0.047348,AN,0.0,0.0,0.0,1.0,-1000000.0,1000000.0,18,18,19,-0.0800361641680532,-0.0,0.0,-0.0400366620657518,0.0,0.0,2.7291857402711563e-05,0.0,0.0,2.76676029567814e-05,0.0,0.0,-0.0800361641680532,-0.0400366620657518,2.7291857402711563e-05,2.76676029567814e-05
20,20,20,21,9,0.061553,AN,0.0,0.0,0.0,1.0,-1000000.0,1000000.0,19,19,20,-0.04000887231148332,-0.0,0.0,-0.02000899446287563,0.0,0.0,8.872311754998177e-06,0.0,0.0,8.99446290239245e-06,0.0,0.0,-0.04000887231148332,-0.02000899446287563,8.872311754998177e-06,8.99446290239245e-06
21,21,19,22,2,0.056818,CABN,0.0,0.0,0.0,1.0,-1000000.0,1000000.0,20,18,21,-0.1200271681617296,-0.0400132754273214,-0.1201379367045881,-0.06018660271837923,-0.020013344688699836,-0.06012119410921006,2.9051810551875553e-06,-7.040903236073826e-07,3.728038875105073e-05,4.519741276967572e-05,-8.272941984891198e-07,3.681166179397014e-05,-0.2801783802936391,-0.1403211415162891,3.9481479482630904e-05,8.118178036515674e-05
22,22,22,23,10,0.099432,BN,0.0,0.0,0.0,1.0,-1000000.0,1000000.0,21,21,22,0.0,-0.04001397951747812,0.0,-0.0,-0.020014171982922994,0.0,0.0,1.3979517275645387e-05,0.0,0.0,1.4171982793358528e-05,0.0,-0.04001397951747812,-0.020014171982922994,1.3979517275645387e-05,1.4171982793358528e-05
23,23,22,24,2,0.047348,CABN,0.0,0.0,0.0,1.0,-1000000.0,1000000.0,22,21,23,-0.12002426298182829,-0.0,-0.12010065631579775,-0.060141405306180326,0.0,-0.06008438244707179,-1.9956851512617614e-06,0.0,3.7284637038650764e-05,4.2937708962081715e-05,-0.0,3.1574402541144216e-05,-0.24012491929762603,-0.12022578775325211,3.5288951887389005e-05,7.451211150322593e-05
24,24,24,25,11,0.104167,CN,0.0,0.0,0.0,1.0,-1000000.0,1000000.0,23,23,24,0.0,-0.0,-0.040014908218762225,-0.0,0.0,-0.02001511347022402,0.0,0.0,1.4908218753097342e-05,0.0,0.0,1.5113470335388708e-05,-0.040014908218762225,-0.02001511347022402,1.4908218753097342e-05,1.5113470335388708e-05
25,25,24,26,2,0.052083,CABN,0.0,0.0,0.0,1.0,-1000000.0,1000000.0,24,23,25,-0.12002625866797909,-0.0,-0.08004846345988846,-0.06009846759761999,0.0,-0.04003769457402571,6.443248910746674e-06,-0.0,2.2210619396754467e-05,4.925244683252377e-05,0.0,1.1062938239362627e-05,-0.20007472212786753,-0.1001361621716457,2.865386830750114e-05,6.03153850718864e-05
26,26,26,27,7,0.066288,ACN,0.0,0.0,0.0,1.0,-1000000.0,1000000.0,25,25,26,-0.04001660467980621,-0.0,-0.0400132519982352,-0.020027249779532637,0.0,-0.020013506769903374,3.5636772914342404e-07,0.0,5.116263089310647e-06,7.306333563808774e-06,0.0,5.259024624551515e-06,-0.08002985667804141,-0.04004075654943601,5.47263081845407e-06,1.2565358188360288e-05
27,27,27,28,7,0.052083,ACN,0.0,0.0,0.0,1.0,-1000000.0,1000000.0,26,26,27,-0.040016248312236574,-0.0,0.0,-0.020019943446041563,0.0,0.0,2.5867569077640195e-06,0.0,-0.0,6.0938023307902375e-06,0.0,0.0,-0.040016248312236574,-0.020019943446041563,2.5867569077640195e-06,6.0938023307902375e-06
28,28,26,29,2,0.037879,CABN,0.0,0.0,0.0,1.0,-1000000.0,1000000.0,27,25,28,-0.08000321074038322,-0.0,-0.04001300084220763,-0.040021965371738175,0.0,-0.020013124865614948,3.4773824715446307e-06,-0.0,4.761768932389035e-06,1.6241945802518128e-05,0.0,1.2163762426387907e-06,-0.12001621158259085,-0.06003509023735312,8.239151403933665e-06,1.7458322045156918e-05
29,29,29,30,2,0.056818,CABN,0.0,0.0,0.0,1.0,-1000000.0,1000000.0,28,28,29,-0.0399997333582761,-0.0,-0.04000823907326702,-0.020005723426097174,0.0,-0.020011908489300186,-2.666415908241937e-07,0.0,4.971565330377537e-06,5.7234261501024e-06,-0.0,4.2109947295177225e-06,-0.08000797243154312,-0.04001763191539736,4.704923739553343e-06,9.934420879620123e-06
30,30,30,31,2,0.066288,CABN,0.0,0.0,0.0,1.0,-1000000.0,1000000.0,29,29,30,0.0,-0.0,-0.040003267507921554,-0.0,0.0,-0.020007697494533617,0.0,0.0,3.267507900673941e-06,-0.0,-0.0,7.697494573703032e-06,-0.040003267507921554,-0.020007697494533617,3.267507900673941e-06,7.697494573703032e-06
31,31,27,32,11,0.042614,CN,0.0,0.0,0.0,1.0,-1000000.0,1000000.0,30,26,31,0.0,-0.0,-0.04000813573512369,-0.0,0.0,-0.020008247745252065,0.0,0.0,6.101632217635629e-06,0.0,0.0,6.18563753631057e-06,-0.04000813573512369,-0.020008247745252065,6.101632217635629e-06,6.18563753631057e-06
32,32,32,33,11,0.056818,CN,0.0,0.0,0.0,1.0,-1000000.0,1000000.0,31,31,32,0.0,-0.0,-0.020002034102901606,-0.0,0.0,-0.010002062107762123,0.0,0.0,2.03410290014148e-06,0.0,0.0,2.0621077775659377e-06,-0.020002034102901606,-0.010002062107762123,2.03410290014148e-06,2.0621077775659377e-06
33,33,28,34,9,0.094697,AN,0.0,0.0,0.0,1.0,-1000000.0,1000000.0,32,27,33,-0.04001366155546062,-0.0,0.0,-0.020013849643778628,0.0,0.0,1.3661555894151078e-05,0.0,0.0,1.3849643821372692e-05,0.0,0.0,-0.04001366155546062,-0.020013849643778628,1.3661555894151078e-05,1.3849643821372692e-05
34,34,14,35,11,0.028409,CN,0.0,0.0,0.0,1.0,-1000000.0,1000000.0,33,13,34,0.0,-0.0,-0.10004378711454362,-0.0,0.0,-0.05004438996126734,0.0,0.0,2.5258291456590597e-05,0.0,0.0,2.5606039525847e-05,-0.10004378711454362,-0.05004438996126734,2.5258291456590597e-05,2.5606039525847e-05
35,35,19,36,4,0.071023,CBAN,0.0,0.0,0.0,1.0,-1000000.0,1000000.0,34,18,35,-0.30047541136760897,-0.25524229647327473,-0.20016759148580407,-0.18073961065702976,-0.16561236185282283,-0.1254270303018186,0.0002005779818756851,8.101300858426248e-05,4.0093264576122225e-05,0.000341694299882733,0.00022543351802908058,9.801001237543639e-05,-0.7558852993266878,-0.4717790028116712,0.0003216842550360698,0.0006651378302872499
36,36,36,37,8,0.123106,ABN,0.0,0.0,0.0,1.0,-1000000.0,1000000.0,35,35,36,-0.04001773643549775,-0.04000942947642729,0.0,-0.020018456106402592,-0.020022086300472624,0.0,9.532640268991442e-06,5.976197518563522e-07,0.0,1.0139363638655079e-05,1.3132849807894775e-05,0.0,-0.08002716591192505,-0.04004054240687521,1.0130260020847794e-05,2.3272213446549854e-05
37,37,37,38,9,0.056818,AN,0.0,0.0,0.0,1.0,-1000000.0,1000000.0,36,36,37,-0.04000820379551456,-0.0,0.0,-0.02000831674298642,0.0,0.0,8.203795777338848e-06,0.0,0.0,8.316743010806574e-06,0.0,0.0,-0.04000820379551456,-0.02000831674298642,8.203795777338848e-06,8.316743010806574e-06
38,38,37,39,10,0.047348,BN,0.0,0.0,0.0,1.0,-1000000.0,1000000.0,37,36,38,0.0,-0.04000883185645694,0.0,-0.0,-0.020008953450577183,0.0,0.0,6.665322509424439e-06,0.0,0.0,6.757088535547269e-06,0.0,-0.04000883185645694,-0.020008953450577183,6.665322509424439e-06,6.757088535547269e-06
39,39,39,40,10,0.061553,BN,0.0,0.0,0.0,1.0,-1000000.0,1000000.0,38,38,39,0.0,-0.020002166533846167,0.0,-0.0,-0.010002196361977767,0.0,0.0,2.166533813167678e-06,0.0,0.0,2.196361956999283e-06,0.0,-0.020002166533846167,-0.010002196361977767,2.166533813167678e-06,2.196361956999283e-06
40,40,36,41,1,0.047348,ABCN,0.0,0.0,0.0,1.0,-1000000.0,1000000.0,39,35,40,-0.22025709696037193,-0.21515185398208128,-0.2001274982224362,-0.1403794602580554,-0.14536484203221006,-0.1253290202876097,7.561870145512809e-05,3.753600552490045e-05,3.5775553799149716e-05,0.00011090053880792749,0.00010296623286565191,9.009264706672823e-05,-0.6355364491648894,-0.4110733225778752,0.00014893026077917828,0.00030395941874030764
41,41,41,42,11,0.061553,CN,0.0,0.0,0.0,1.0,-1000000.0,1000000.0,40,40,41,0.0,-0.0,-0.020002200819452733,-0.0,0.0,-0.010002231119611552,0.0,0.0,2.2008194514187355e-06,0.0,0.0,2.2311196289397735e-06,-0.020002200819452733,-0.010002231119611552,2.2008194514187355e-06,2.2311196289397735e-06
42,42,41,43,1,0.047348,ABCN,0.0,0.0,0.0,1.0,-1000000.0,1000000.0,41,40,42,-0.22018147826251977,-0.21511431797343278,-0.18008952184963845,-0.14026855972221217,-0.14526187579821975,-0.1152366965201446,8.160968294583839e-05,3.268081418629625e-05,2.7365348457932478e-05,0.00011246071771692801,0.00010748271805028165,6.843078911200773e-05,-0.615385318085591,-0.40076713204057646,0.00014165584559006712,0.0002883742248792174
43,43,43,44,10,0.094697,BN,0.0,0.0,0.0,1.0,-1000000.0,1000000.0,42,42,43,0.0,-0.040013348680114455,0.0,-0.0,-0.02001353246038529,0.0,0.0,1.3348679901608228e-05,0.0,0.0,1.3532460252345084e-05,0.0,-0.040013348680114455,-0.02001353246038529,1.3348679901608228e-05,1.3532460252345084e-05
44,44,43,45,1,0.037879,ABCN,0.0,0.0,0.0,1.0,-1000000.0,1000000.0,43,42,44,-0.2000998685831923,-0.17506828847597183,-0.18006215650164004,-0.13015609900749076,-0.12514086061865565,-0.11516826573025707,4.6589254026137396e-05,1.8798536705883873e-05,2.7505886613480677e-05,7.794104329250317e-05,5.233099030621387e-05,6.000787327078861e-05,-0.5552303135608041,-0.37046522535640347,9.289367734550195e-05,0.00019027990686950564
45,45,45,46,9,0.037879,AN,0.0,0.0,0.0,1.0,-1000000.0,1000000.0,44,44,45,-0.04000753546259378,-0.0,0.0,-0.02000763920866356,0.0,0.0,5.48016461841122e-06,0.0,0.0,5.555613770169365e-06,0.0,0.0,-0.04000753546259378,-0.02000763920866356,5.48016461841122e-06,5.555613770169365e-06
46,46,46,47,9,0.056818,AN,0.0,0.0,0.0,1.0,-1000000.0,1000000.0,45,45,46,-0.020002055298159734,-0.0,0.0,-0.010002083594910451,0.0,0.0,2.0552982289934582e-06,0.0,0.0,2.0835949169189626e-06,0.0,0.0,-0.020002055298159734,-0.010002083594910451,2.0552982289934582e-06,2.0835949169189626e-06
47,47,45,48,1,0.047348,ABCN,0.0,0.0,0.0,1.0,-1000000.0,1000000.0,46,44,47,-0.16004574386903786,-0.1750494899374422,-0.1800346506152729,-0.11007051875746728,-0.12508852962776323,-0.11510825785645562,3.852652493924306e-05,3.5469810203954344e-05,2.734734537005488e-05,5.519813017232127e-05,7.009614356621712e-05,8.232501553212388e-05,-0.515129884421753,-0.3502673062416861,0.00010134368051325228,0.00020761928927066225
48,48,48,49,4,0.028409,CBAN,0.0,0.0,0.0,1.0,-1000000.0,1000000.0,47,47,48,-0.07000389272445615,-0.0700041728666555,-0.07000231784779498,-0.05000756071975868,-0.05000653876475475,-0.050007191285976166,3.892724696461263e-06,4.1728664792396065e-06,2.3178478368147775e-06,7.560719939168128e-06,6.538764680397713e-06,7.191285932210987e-06,-0.21001038343890663,-0.1500212907704896,1.0383439012515647e-05,2.129077055177683e-05
49,49,48,50,4,0.047348,CBAN,0.0,0.0,0.0,1.0,-1000000.0,1000000.0,48,47,49,-0.05500332462158898,-0.07000984725859195,-0.07500498542239992,-0.035007759909211726,-0.050011894718611616,-0.040018741554524284,3.185645434855739e-06,9.847258334260368e-06,1.9974782954204075e-06,5.173999067316436e-06,1.1894718462069724e-05,1.407855373879379e-05,-0.20001815730258085,-0.12503839618234763,1.5030382064536516e-05,3.114727126817995e-05
50,50,50,51,4,0.047348,CBAN,0.0,0.0,0.0,1.0,-1000000.0,1000000.0,49,49,50,-0.02000013897637743,-0.0,-0.04000298794416425,-0.010002585910330559,0.0,-0.020004663000740275,-4.5589799839663264e-07,0.0,2.987944147985723e-06,1.212994294245549e-06,-0.0,4.663000746356369e-06,-0.06000312692054168,-0.030007248911070834,2.5320461495890903e-06,5.875995040601918e-06
51,51,51,52,4,0.047348,CBAN,0.0,0.0,0.0,1.0,-1000000.0,1000000.0,50,50,51,-0.02000059487440484,-0.0,0.0,-0.010001372916047066,0.0,0.0,5.948744372485827e-07,-0.0,-0.0,1.3729160630844322e-06,0.0,0.0,-0.02000059487440484,-0.010001372916047066,5.948744372485827e-07,1.3729160630844322e-06
52,52,14,53,1,0.075758,ABCN,0.0,0.0,0.0,1.0,-1000000.0,1000000.0,51,13,52,-0.7648055492833389,-0.5825743882240948,-0.6398556923090679,-0.42596142570562384,-0.3151367898921986,-0.3523051362140358,0.0012154885028105122,0.0001690512357168368,0.0007892122543461056,0.0023146621834005945,0.0009045335194509145,0.0012969846974461442,-1.9872356298165015,-1.0934033518118582,0.0021737519928734547,0.004516180400297653
53,53,53,54,1,0.037879,ABCN,0.0,0.0,0.0,1.0,-1000000.0,1000000.0,52,52,53,-0.7235900608879148,-0.5824053369269504,-0.6390664800650039,-0.40364676360136753,-0.3142322563609776,-0.35100815149643816,0.0005431023655225247,0.00011505057184069417,0.00037682084331534495,0.0010161289720932918,0.0004599905513920097,0.0006695578157236595,-1.9450618778798692,-1.0688871714587833,0.001034973780678564,0.0021456773392089607
54,54,54,55,1,0.023674,ABCN,0.0,0.0,0.0,1.0,-1000000.0,1000000.0,53,53,54,-0.6830469585715314,-0.5822902863250156,-0.6386896592268383,-0.3826306346660014,-0.3137722658033879,-0.3503385936712464,0.0003013194962754673,9.10092336603953e-05,0.00022439057692150066,0.000552247799224656,0.00029230811128584335,0.0004316565024803782,-1.9040269041233853,-1.0467414941406357,0.0006167193068573633,0.0012762124129908775
55,55,55,56,1,0.052083,ABCN,0.0,0.0,0.0,1.0,-1000000.0,1000000.0,54,54,55,-0.02000114772219216,-0.020000570057630715,0.0,-0.010000988169135713,-0.010002732400856999,0.0,1.1477222247169805e-06,-7.31603165255088e-08,0.0,9.881691633293465e-07,1.2874351080239493e-06,0.0,-0.04000171777982288,-0.020003720569992712,1.0745619081914717e-06,2.2756042713532955e-06
56,56,56,57,1,0.052083,ABCN,0.0,0.0,0.0,1.0,-1000000.0,1000000.0,55,55,56,0.0,-0.020000643217916822,0.0,-0.0,-0.010001444965739676,0.0,0.0,6.432179027044199e-07,0.0,0.0,1.4449657214204307e-06,0.0,-0.020000643217916822,-0.010001444965739676,6.432179027044199e-07,1.4449657214204307e-06
57,57,55,58,3,0.066288,BCAN,0.0,0.0,0.0,1.0,-1000000.0,1000000.0,56,54,57,-0.6627444913809494,-0.5621987070153388,-0.6384652686531422,-0.3720773987188231,-0.30347722528715665,-0.34990693716326393,0.000533052336655343,0.0005279354613027131,0.0005999285439601297,0.0015002729762317365,0.0008179283889810792,0.001085592336313117,-1.8634084670494304,-1.0254615611692437,0.0016609163419181857,0.0034037937015259324
58,58,58,59,10,0.047348,BN,0.0,0.0,0.0,1.0,-1000000.0,1000000.0,57,57,58,0.0,-0.040008354104312034,0.0,-0.0,-0.020008469120874842,0.0,0.0,6.683148696595329e-06,0.0,0.0,6.7751601479553154e-06,0.0,-0.040008354104312034,-0.020008469120874842,6.683148696595329e-06,6.7751601479553154e-06
59,59,59,60,10,0.047348,BN,0.0,0.0,0.0,1.0,-1000000.0,1000000.0,58,58,59,0.0,-0.020001670955482154,0.0,-0.0,-0.010001693960648084,0.0,0.0,1.67095544878316e-06,0.0,0.0,1.693960628374442e-06,0.0,-0.020001670955482154,-0.010001693960648084,1.67095544878316e-06,1.693960628374442e-06
60,60,58,61,3,0.142045,BCAN,0.0,0.0,0.0,1.0,-1000000.0,1000000.0,59,57,60,-0.6622114391209277,-0.5216624174103722,-0.6378653401214811,-0.3705771257941478,-0.28265082776400474,-0.34882134480963156,0.0010713764738090193,0.0009638311278374555,0.0014110883524337914,0.0032955661569594435,0.0014137285242958933,0.00235956338063424,-1.821739196652781,-1.0020492983677842,0.003446295954080266,0.007068858061889578
61,61,61,62,12,0.047348,nan,0.0,0.0,0.0,1.0,-1000000.0,1000000.0,60,60,61,-0.07501559937862584,-0.11015963619301838,-0.18551673503354743,-0.045031348102965614,-0.05999456170361427,-0.10530906147287968,9.1491705640899e-06,4.523008301367634e-05,0.00013980623271884717,1.3088580026818499e-05,-2.222616383663738e-06,8.294695115059439e-05,-0.37069197060519166,-0.21033497127945955,0.00019418548629661342,9.381291479374915e-05
62,62,62,63,12,0.033144,nan,0.0,0.0,0.0,1.0,-1000000.0,1000000.0,61,61,62,-0.07500645020910643,-0.11011440610869247,-0.14537692880150344,-0.04501825952296163,-0.0599967843200545,-0.08522611452210424,9.649669605572023e-06,3.165733850402008e-05,5.678192630689624e-05,7.171307985360151e-06,4.345498799838665e-06,3.5407420761406784e-05,-0.33049778511930233,-0.19024115836512037,9.808893441648834e-05,4.6924227546605595e-05
63,63,63,64,12,0.066288,nan,0.0,0.0,0.0,1.0,-1000000.0,1000000.0,62,62,63,-0.03499680054026507,-0.11008274876923706,-0.1453201468754968,-0.025011088214996858,-0.05999243882133404,-0.08519070710136689,-7.892060292012098e-07,7.354089804230783e-05,0.00011431580988273197,9.305017219097288e-07,2.698465019018119e-06,8.546552316721888e-05,-0.29039969618499895,-0.1701942341376978,0.0001870675018958386,8.909448990814672e-05
64,64,64,65,12,0.080492,nan,0.0,0.0,0.0,1.0,-1000000.0,1000000.0,63,63,64,-0.03499758974661324,-0.03500920786943363,-0.1452058310665796,-0.02501015771339335,-0.024989740356067994,-0.0851052415786347,-2.410253020657266e-06,9.207869214872347e-06,0.0001707493234103458,1.0157713351639495e-05,-1.0259643942625694e-05,8.78933127303718e-05,-0.21521262868262647,-0.13510513964809603,0.00017754693960456087,8.77913821393856e-05
65,65,65,66,12,0.061553,nan,0.0,0.0,0.0,1.0,-1000000.0,1000000.0,64,64,65,0.0,-0.0,-0.07503508174380134,-0.0,0.0,-0.035017348266920906,0.0,0.0,3.508174396990264e-05,-0.0,-0.0,1.7348267236349386e-05,-0.07503508174380134,-0.035017348266920906,3.508174396990264e-05,1.7348267236349386e-05
66,66,61,67,6,0.066288,ACBN,0.0,0.0,0.0,1.0,-1000000.0,1000000.0,65,60,66,-0.5661244634334863,-0.41053895001339824,-0.4509375167597416,-0.31225021164313604,-0.22124253751250697,-0.2411527199190029,0.0003687371969157102,0.00015614016215009487,0.00047677282621791774,0.0011402272091421437,0.0004665970241351196,0.00045385017543480937,-1.4276009302066262,-0.7746454690746459,0.0010016501852837228,0.0020606744087120726
67,67,67,68,9,0.037879,AN,0.0,0.0,0.0,1.0,-1000000.0,1000000.0,66,66,67,-0.12012559456836772,-0.0,0.0,-0.06012732372072625,0.0,0.0,4.994599342929721e-05,0.0,0.0,5.063363387449443e-05,0.0,0.0,-0.12012559456836772,-0.06012732372072625,4.994599342929721e-05,5.063363387449443e-05
68,68,68,69,9,0.052083,AN,0.0,0.0,0.0,1.0,-1000000.0,1000000.0,67,67,68,-0.10007564857777679,-0.0,0.0,-0.05007669008712669,0.0,0.0,4.7705403210411746e-05,0.0,0.0,4.836219592689574e-05,0.0,0.0,-0.10007564857777679,-0.05007669008712669,4.7705403210411746e-05,4.836219592689574e-05
69,69,69,70,9,0.061553,AN,0.0,0.0,0.0,1.0,-1000000.0,1000000.0,68,68,69,-0.06002794317728804,-0.0,0.0,-0.03002832789146867,0.0,0.0,2.0305715042257873e-05,0.0,0.0,2.0585277625220048e-05,0.0,0.0,-0.06002794317728804,-0.03002832789146867,2.0305715042257873e-05,2.0585277625220048e-05
70,70,70,71,9,0.052083,AN,0.0,0.0,0.0,1.0,-1000000.0,1000000.0,69,69,70,-0.04000763746341096,-0.0,0.0,-0.02000774261396186,0.0,0.0,7.637463850076843e-06,0.0,0.0,7.742614006905315e-06,0.0,0.0,-0.04000763746341096,-0.02000774261396186,7.637463850076843e-06,7.742614006905315e-06
71,71,67,72,3,0.052083,BCAN,0.0,0.0,0.0,1.0,-1000000.0,1000000.0,70,66,71,-0.2652385827272549,-0.29032279199353944,-0.31032295847175795,-0.16042742088542114,-0.16066810344590848,-0.1705372497805149,6.771982066761373e-05,0.00013839183948788995,8.120209212908363e-05,0.00017186686179071007,0.000191499631132746,0.00022151679940088509,-0.8658843331925523,-0.4916327741118445,0.00028731375228458736,0.0005848832923243412
72,72,72,73,11,0.052083,CN,0.0,0.0,0.0,1.0,-1000000.0,1000000.0,71,71,72,0.0,-0.0,-0.12011761633471078,-0.0,0.0,-0.060119235637283865,0.0,0.0,6.807703185211401e-05,0.0,0.0,6.901429462889227e-05,-0.12011761633471078,-0.060119235637283865,6.807703185211401e-05,6.901429462889227e-05
73,73,73,74,11,0.066288,CN,0.0,0.0,0.0,1.0,-1000000.0,1000000.0,72,72,73,0.0,-0.0,-0.08004953930295328,-0.0,0.0,-0.04005022134360236,0.0,0.0,3.852769554913154e-05,0.0,0.0,3.9058132525169086e-05,-0.08004953930295328,-0.04005022134360236,3.852769554913154e-05,3.9058132525169086e-05
74,74,74,75,11,0.075758,CN,0.0,0.0,0.0,1.0,-1000000.0,1000000.0,73,73,74,0.0,-0.0,-0.04001101160746163,-0.0,0.0,-0.02001116321161211,0.0,0.0,1.1011607478825391e-05,0.0,0.0,1.1163211764758662e-05,-0.04001101160746163,-0.02001116321161211,1.1011607478825391e-05,1.1163211764758662e-05
75,75,72,76,3,0.037879,BCAN,0.0,0.0,0.0,1.0,-1000000.0,1000000.0,74,71,75,-0.26517086291651365,-0.29018440014643687,-0.1901241400473353,-0.16025555403078204,-0.1604766038111667,-0.11019649734166705,8.70288279353385e-05,6.678564928924558e-05,9.864006091799798e-06,0.00013480618825066214,0.00017309944224476635,3.536002465124378e-05,-0.7454794031102858,-0.4309286551836158,0.00016367848331638388,0.00034326565514667225
76,76,76,77,6,0.075758,ACBN,0.0,0.0,0.0,1.0,-1000000.0,1000000.0,75,75,76,-0.08000203641481562,-0.08001735243119977,-0.0801167201944121,-0.040051918220540376,-0.04002471216384175,-0.04014764726944877,6.801937393006318e-06,1.089292692902333e-05,1.2613867042318867e-05,2.1382088547343597e-05,2.1289896563377954e-05,1.9349035746799652e-05,-0.2401361090404275,-0.1202242776538309,3.0308731364348513e-05,6.20210208575212e-05
77,77,77,78,6,0.018939,ACBN,0.0,0.0,0.0,1.0,-1000000.0,1000000.0,76,76,77,-0.07999523447865627,-0.040006459503397686,-0.08010410632761804,-0.040030536132852776,-0.020003422266911687,-0.040128298233314416,6.323797848497131e-07,4.252400522243354e-07,4.981568250239827e-06,6.67500191987789e-06,5.0013193284788e-07,5.147083567449119e-06,-0.200105800309672,-0.10016225663307887,6.039188087313876e-06,1.232221742017489e-05
78,78,78,79,6,0.042614,ACBN,0.0,0.0,0.0,1.0,-1000000.0,1000000.0,77,77,78,-0.04000214929519738,-0.0,0.0,-0.020005063243874133,0.0,0.0,2.149295401458973e-06,-0.0,-0.0,5.06324397459085e-06,0.0,0.0,-0.04000214929519738,-0.020005063243874133,2.149295401458973e-06,5.06324397459085e-06
79,79,78,80,6,0.089962,ACBN,0.0,0.0,0.0,1.0,-1000000.0,1000000.0,78,77,79,-0.039992452803996666,-0.04000603426327041,-0.08009912475938871,-0.020018797887238305,-0.02000292213497319,-0.04012315114965532,-3.0341848398799676e-06,6.034263054326886e-06,1.667544373274832e-05,5.1632225770457965e-06,2.922134854991648e-06,3.21285187710461e-05,-0.16009761182665577,-0.0801448711718668,1.9675521947195236e-05,4.021387620308355e-05
80,80,80,81,6,0.089962,ACBN,0.0,0.0,0.0,1.0,-1000000.0,1000000.0,79,79,80,-0.03999548698917197,-0.0,-0.080082449315744,-0.020013634664875542,0.0,-0.040091022630878145,-5.571793537676361e-06,0.0,2.5360914931545027e-05,8.321098814511106e-06,-0.0,3.3601028152885356e-05,-0.12007793630491598,-0.06010465729575369,1.9789121393868668e-05,4.192212696739646e-05
81,81,81,82,6,0.047348,ACBN,0.0,0.0,0.0,1.0,-1000000.0,1000000.0,80,80,81,-0.04000105878307898,-0.0,-0.020002125221465456,-0.020005313566190487,0.0,-0.010001701708768712,1.0587832997716756e-06,-0.0,1.5216225141982192e-06,5.3135662918465265e-06,0.0,3.4574557580718997e-07,-0.060003184004544435,-0.0300070152749592,2.5804058139698948e-06,5.6593118676537164e-06
82,82,82,83,6,0.047348,ACBN,0.0,0.0,0.0,1.0,-1000000.0,1000000.0,81,81,82,0.0,-0.0,-0.020000603598948348,-0.0,0.0,-0.010001355963150731,0.0,0.0,6.035989439818044e-07,-0.0,-0.0,1.3559631656273625e-06,-0.020000603598948348,-0.010001355963150731,6.035989439818044e-07,1.3559631656273625e-06
83,83,81,84,11,0.127841,CN,0.0,0.0,0.0,1.0,-1000000.0,1000000.0,82,80,83,0.0,-0.0,-0.060054963179238,-0.0,0.0,-0.030055719893975933,0.0,0.0,4.186589960978431e-05,0.0,0.0,4.2442295910460683e-05,-0.060054963179238,-0.030055719893975933,4.186589960978431e-05,4.2442295910460683e-05
84,84,84,85,11,0.089962,CN,0.0,0.0,0.0,1.0,-1000000.0,1000000.0,83,83,84,0.0,-0.0,-0.040013097279695584,-0.0,0.0,-0.020013277598679154,0.0,0.0,1.3097279717409695e-05,0.0,0.0,1.3277598870906982e-05,-0.040013097279695584,-0.020013277598679154,1.3097279717409695e-05,1.3277598870906982e-05
85,85,76,86,3,0.132576,BCAN,0.0,0.0,0.0,1.0,-1000000.0,1000000.0,84,75,85,-0.08008179768121003,-0.14010026205994247,-0.039997555848162406,-0.040068829627500205,-0.07027879220250503,-0.020013490045964345,4.024337124864191e-05,5.622087484550963e-05,-1.0695267824093764e-05,2.739706855932309e-05,0.00016291044083064342,-8.576827659610723e-07,-0.2601796155893149,-0.13036111187596958,8.576897827005777e-05,0.00018944982662400545
86,86,86,87,6,0.085227,ACBN,0.0,0.0,0.0,1.0,-1000000.0,1000000.0,85,85,86,-0.08004155431212807,-0.12004404118076678,-0.0400082511165328,-0.04004143256099824,-0.06011588175899585,-0.020014347728289833,2.207950297267679e-05,2.31264150220664e-05,-1.3914222532835774e-06,2.0323182593315378e-05,7.495319672228835e-05,4.0168479971836163e-07,-0.24009384660942765,-0.12017166204828392,4.381449574145962e-05,9.567806411532209e-05
87,87,87,88,9,0.033144,AN,0.0,0.0,0.0,1.0,-1000000.0,1000000.0,86,86,87,-0.04000486251066272,-0.0,0.0,-0.02000492945642574,0.0,0.0,4.862510954665078e-06,0.0,0.0,4.9294564485488955e-06,0.0,0.0,-0.04000486251066272,-0.02000492945642574,4.862510954665078e-06,4.9294564485488955e-06
88,88,87,89,6,0.052083,ACBN,0.0,0.0,0.0,1.0,-1000000.0,1000000.0,87,86,88,-0.04001461229992138,-0.0800209147635736,-0.04000964253905415,-0.02001617992322452,-0.04004092856109822,-0.02001394604314112,2.6471994367243003e-06,8.917939947667456e-06,-3.572771121811442e-07,1.8457024498925564e-06,1.9267413175767058e-05,2.8886862102808856e-06,-0.16004516960254914,-0.08007105452746385,1.1207862272210612e-05,2.40018018359405e-05
...